/*--------------------------------*- C++ -*----------------------------------*\
| =========                 |                                                 |
| \\      /  F ield         | OpenFOAM: The Open Source CFD Toolbox           |
|  \\    /   O peration     | Version:  2.3.0                                 |
|   \\  /    A nd           | Web:      www.OpenFOAM.org                      |
|    \\/     M anipulation  |                                                 |
\*---------------------------------------------------------------------------*/
FoamFile
{
    version     2.0;
    format      ascii;
    class       volVectorField;
    location    "0";
    object      U;
}
// * * * * * * * * * * * * * * * * * * * * * * * * * * * * * * * * * * * * * //

dimensions      [0 1 -1 0 0 0 0];

internalField   uniform (1 0 0);

boundaryField
{
    periodic_z0
    {
        type            cyclic;
    }
    periodic_z1
    {
        type            cyclic;
    }
    periodic_y0
    {
        type            cyclic;
    }
    periodic_y1
    {
        type            cyclic;
    }
    periodic_x0
    {
        type            fixedValue;
        value           uniform (1 0 0);
    }
    periodic_x1
    {
        type            inletOutlet;
        inletValue      uniform (1 0 0);
        value           uniform (1 0 0);
    }
   
}
