/*--------------------------------*- C++ -*----------------------------------*\
| =========                 |                                                 |
| \\      /  F ield         | OpenFOAM: The Open Source CFD Toolbox           |
|  \\    /   O peration     | Version:  2.3.0                                 |
|   \\  /    A nd           | Web:      www.OpenFOAM.org                      |
|    \\/     M anipulation  |                                                 |
\*---------------------------------------------------------------------------*/
FoamFile
{
    version     2.0;
    format      ascii;
    class       volScalarField;
    location    "0";
    object      voidfraction;
}
// * * * * * * * * * * * * * * * * * * * * * * * * * * * * * * * * * * * * * //

dimensions      [0 0 0 0 0 0 0];

internalField   uniform 1;

boundaryField
{
    periodic_z0
    {
        type            cyclic;
    }
    periodic_z1
    {
        type            cyclic;
    }
    periodic_y0
    {
        type            cyclic;
    }
    periodic_y1
    {
        type            cyclic;
    }
    periodic_x0
    {
        type            zeroGradient;
    }
    periodic_x1
    {
        type            zeroGradient;
    }

}

