/*--------------------------------*- C++ -*----------------------------------*\
| =========                 |                                                 |
| \\      /  F ield         | OpenFOAM: The Open Source CFD Toolbox           |
|  \\    /   O peration     | Version:  1.6                                   |
|   \\  /    A nd           | Web:      www.OpenFOAM.org                      |
|    \\/     M anipulation  |                                                 |
\*---------------------------------------------------------------------------*/
FoamFile
{
    version     2.0;
    format      ascii;
    class       dictionary;
    location    "system";
    object      controlDict;
}
// * * * * * * * * * * * * * * * * * * * * * * * * * * * * * * * * * * * * * //


startFrom       startTime;// latestTime; //

startTime       0;

stopAt          endTime;

endTime         1;//5.00;

deltaT          1;

writeControl    adjustableRunTime;//timeStep;//

writeInterval   1;//10;//0.05;//

purgeWrite      20;

writeFormat     ascii;

writePrecision  6;

writeCompression uncompressed;

timeFormat      general;

timePrecision   6;

runTimeModifiable off;//yes;

adjustTimeStep  no;

maxCo           1;

maxDeltaT       1;


// ************************************************************************* //
libs
(
 
);

functions
(

);

// ************************************************************************* //
